!- Windows Line endings 

Version,
    22.1;                     !- Version Identifier

SimulationControl,
    Yes,                      !- Do Zone Sizing Calculation
    Yes,                      !- Do System Sizing Calculation
    Yes,                      !- Do Plant Sizing Calculation
    Yes,                      !- Run Simulation for Sizing Periods
    Yes,                      !- Run Simulation for Weather File Run Periods
    No,                       !- Do HVAC Sizing Simulation for Sizing Periods
    ;                         !- Maximum Number of HVAC Sizing Simulation Passes

Building,
    Building 1,               !- Name
    71.5,                     !- North Axis
    ,                         !- Terrain
    ,                         !- Loads Convergence Tolerance Value
    ,                         !- Temperature Convergence Tolerance Value
    ,                         !- Solar Distribution
    ,                         !- Maximum Number of Warmup Days
    ;                         !- Minimum Number of Warmup Days

ShadowCalculation,
    PolygonClipping,          !- Shading Calculation Method
    Periodic,                 !- Shading Calculation Update Frequency Method
    20,                       !- Shading Calculation Update Frequency
    15000,                    !- Maximum Figures in Shadow Overlap Calculations
    SutherlandHodgman,        !- Polygon Clipping Algorithm
    512,                      !- Pixel Counting Resolution
    SimpleSkyDiffuseModeling,    !- Sky Diffuse Modeling Algorithm
    No,                       !- Output External Shading Calculation Results
    No,                       !- Disable SelfShading Within Shading Zone Groups
    No;                       !- Disable SelfShading From Shading Zone Groups to Other Zones

SurfaceConvectionAlgorithm:Inside,
    TARP;                     !- Algorithm

SurfaceConvectionAlgorithm:Outside,
    DOE-2;                    !- Algorithm

HeatBalanceAlgorithm,
    ConductionTransferFunction,    !- Algorithm
    200;                      !- Surface Temperature Upper Limit

ZoneAirHeatBalanceAlgorithm,
    ThirdOrderBackwardDifference;    !- Algorithm

ZoneAirContaminantBalance,
    No;                       !- Carbon Dioxide Concentration

ZoneCapacitanceMultiplier:ResearchSpecial,
    Zone Capacitance Multiplier Research Special,    !- Name
    ,                         !- Zone or ZoneList Name
    ,                         !- Temperature Capacity Multiplier
    ,                         !- Humidity Capacity Multiplier
    ,                         !- Carbon Dioxide Capacity Multiplier
    ;                         !- Generic Contaminant Capacity Multiplier

Timestep,
    12;                       !- Number of Timesteps per Hour

ConvergenceLimits,
    1;                        !- Minimum System Timestep

Site:Location,
    Greenville-Spartanburg Intl AP,    !- Name
    34.9,                     !- Latitude
    -82.217,                  !- Longitude
    -5,                       !- Time Zone
    292;                      !- Elevation

SizingPeriod:DesignDay,
    Greenville-Spartanburg Intl A Ann Htg 99% Condns DB,    !- Name
    1,                        !- Month
    21,                       !- Day of Month
    WinterDesignDay,          !- Day Type
    -3.7,                     !- Maximum DryBulb Temperature
    0,                        !- Daily DryBulb Temperature Range
    DefaultMultipliers,       !- DryBulb Temperature Range Modifier Type
    ,                         !- DryBulb Temperature Range Modifier Day Schedule Name
    Wetbulb,                  !- Humidity Condition Type
    -3.7,                     !- Wetbulb or DewPoint at Maximum DryBulb
    ,                         !- Humidity Condition Day Schedule Name
    ,                         !- Humidity Ratio at Maximum DryBulb
    ,                         !- Enthalpy at Maximum DryBulb
    ,                         !- Daily WetBulb Temperature Range
    97866,                    !- Barometric Pressure
    2.3,                      !- Wind Speed
    340,                      !- Wind Direction
    No,                       !- Rain Indicator
    No,                       !- Snow Indicator
    No,                       !- Daylight Saving Time Indicator
    ASHRAEClearSky,           !- Solar Model Indicator
    ,                         !- Beam Solar Day Schedule Name
    ,                         !- Diffuse Solar Day Schedule Name
    ,                         !- ASHRAE Clear Sky Optical Depth for Beam Irradiance taub
    ,                         !- ASHRAE Clear Sky Optical Depth for Diffuse Irradiance taud
    0,                        !- Sky Clearness
    ,                         !- Maximum Number Warmup Days
    FullResetAtBeginEnvironment;    !- Begin Environment Reset Mode

RunPeriod,
    Run Period 1,             !- Name
    1,                        !- Begin Month
    1,                        !- Begin Day of Month
    2006,                     !- Begin Year
    12,                       !- End Month
    31,                       !- End Day of Month
    2006,                     !- End Year
    Sunday,                   !- Day of Week for Start Day
    No,                       !- Use Weather File Holidays and Special Days
    No,                       !- Use Weather File Daylight Saving Period
    No,                       !- Apply Weekend Holiday Rule
    Yes,                      !- Use Weather File Rain Indicators
    Yes;                      !- Use Weather File Snow Indicators

ScheduleTypeLimits,
    Thermal Zone 1 Thermostat Schedule Type Limits,    !- Name
    0,                        !- Lower Limit Value
    4,                        !- Upper Limit Value
    DISCRETE;                 !- Numeric Type

ScheduleTypeLimits,
    Temperature,              !- Name
    ,                         !- Lower Limit Value
    ,                         !- Upper Limit Value
    Continuous,               !- Numeric Type
    temperature;              !- Unit Type

ScheduleTypeLimits,
    Thermal Zone 2 Thermostat Schedule Type Limits,    !- Name
    0,                        !- Lower Limit Value
    4,                        !- Upper Limit Value
    DISCRETE;                 !- Numeric Type

ScheduleTypeLimits,
    Thermal Zone 3 Thermostat Schedule Type Limits,    !- Name
    0,                        !- Lower Limit Value
    4,                        !- Upper Limit Value
    DISCRETE;                 !- Numeric Type

ScheduleTypeLimits,
    Thermal Zone 4 Thermostat Schedule Type Limits,    !- Name
    0,                        !- Lower Limit Value
    4,                        !- Upper Limit Value
    DISCRETE;                 !- Numeric Type

ScheduleTypeLimits,
    Thermal Zone 5 Thermostat Schedule Type Limits,    !- Name
    0,                        !- Lower Limit Value
    4,                        !- Upper Limit Value
    DISCRETE;                 !- Numeric Type

ScheduleTypeLimits,
    Thermal Zone 6 Thermostat Schedule Type Limits,    !- Name
    0,                        !- Lower Limit Value
    4,                        !- Upper Limit Value
    DISCRETE;                 !- Numeric Type

ScheduleTypeLimits,
    ActivityLevel,            !- Name
    0,                        !- Lower Limit Value
    ,                         !- Upper Limit Value
    Continuous,               !- Numeric Type
    activitylevel;            !- Unit Type

ScheduleTypeLimits,
    ActivityLevel 5,          !- Name
    0,                        !- Lower Limit Value
    ,                         !- Upper Limit Value
    Continuous,               !- Numeric Type
    activitylevel;            !- Unit Type

ScheduleTypeLimits,
    Capacity,                 !- Name
    0,                        !- Lower Limit Value
    ,                         !- Upper Limit Value
    Continuous,               !- Numeric Type
    capacity;                 !- Unit Type

ScheduleTypeLimits,
    Any Number;               !- Name

ScheduleTypeLimits,
    DeltaTemperature,         !- Name
    ,                         !- Lower Limit Value
    ,                         !- Upper Limit Value
    Continuous,               !- Numeric Type
    deltatemperature;         !- Unit Type

ScheduleTypeLimits,
    Dimensionless,            !- Name
    ,                         !- Lower Limit Value
    ,                         !- Upper Limit Value
    Continuous;               !- Numeric Type

ScheduleTypeLimits,
    Dimensionless 1,          !- Name
    -1,                       !- Lower Limit Value
    1,                        !- Upper Limit Value
    Continuous;               !- Numeric Type

ScheduleTypeLimits,
    Dimensionless 2,          !- Name
    0,                        !- Lower Limit Value
    ,                         !- Upper Limit Value
    Continuous;               !- Numeric Type

ScheduleTypeLimits,
    Dimensionless 3,          !- Name
    0.1,                      !- Lower Limit Value
    1000,                     !- Upper Limit Value
    Continuous;               !- Numeric Type

ScheduleTypeLimits,
    Dimensionless 4,          !- Name
    0,                        !- Lower Limit Value
    1,                        !- Upper Limit Value
    Continuous,               !- Numeric Type
    dimensionless;            !- Unit Type

ScheduleTypeLimits,
    Fraction,                 !- Name
    0,                        !- Lower Limit Value
    1,                        !- Upper Limit Value
    CONTINUOUS;               !- Numeric Type

ScheduleTypeLimits,
    Fractional,               !- Name
    0,                        !- Lower Limit Value
    1,                        !- Upper Limit Value
    Continuous;               !- Numeric Type

ScheduleTypeLimits,
    Integer,                  !- Name
    0,                        !- Lower Limit Value
    4,                        !- Upper Limit Value
    Discrete;                 !- Numeric Type

ScheduleTypeLimits,
    OnOff,                    !- Name
    0,                        !- Lower Limit Value
    1,                        !- Upper Limit Value
    Discrete,                 !- Numeric Type
    availability;             !- Unit Type

ScheduleTypeLimits,
    OnOff 1,                  !- Name
    0,                        !- Lower Limit Value
    1,                        !- Upper Limit Value
    Discrete,                 !- Numeric Type
    availability;             !- Unit Type

ScheduleTypeLimits,
    Percent,                  !- Name
    0,                        !- Lower Limit Value
    100,                      !- Upper Limit Value
    Continuous,               !- Numeric Type
    percent;                  !- Unit Type

ScheduleTypeLimits,
    Temperature 1,            !- Name
    ,                         !- Lower Limit Value
    0,                        !- Upper Limit Value
    Continuous,               !- Numeric Type
    temperature;              !- Unit Type

ScheduleTypeLimits,
    Temperature 2,            !- Name
    0,                        !- Lower Limit Value
    ,                         !- Upper Limit Value
    Continuous,               !- Numeric Type
    temperature;              !- Unit Type

ScheduleTypeLimits,
    Temperature 3,            !- Name
    0,                        !- Lower Limit Value
    100,                      !- Upper Limit Value
    Continuous,               !- Numeric Type
    temperature;              !- Unit Type

ScheduleTypeLimits,
    Velocity,                 !- Name
    0,                        !- Lower Limit Value
    ,                         !- Upper Limit Value
    Continuous,               !- Numeric Type
    velocity;                 !- Unit Type

Schedule:Day:Interval,
    Schedule Day 4,           !- Name
    Temperature,              !- Schedule Type Limits Name
    No,                       !- Interpolate to Timestep
    24:00,                    !- Time 1
    18.3333333333334;         !- Value Until Time 1

Schedule:Day:Interval,
    Schedule Day 3,           !- Name
    Temperature,              !- Schedule Type Limits Name
    No,                       !- Interpolate to Timestep
    03:00,                    !- Time 1
    18.3333333333334,         !- Value Until Time 1
    19:00,                    !- Time 2
    21.6666666666667,         !- Value Until Time 2
    24:00,                    !- Time 3
    18.3333333333334;         !- Value Until Time 3

Schedule:Day:Interval,
    Schedule Day 2,           !- Name
    Temperature,              !- Schedule Type Limits Name
    No,                       !- Interpolate to Timestep
    24:00,                    !- Time 1
    26.6666666666667;         !- Value Until Time 1

Schedule:Day:Interval,
    Schedule Day 1,           !- Name
    Temperature,              !- Schedule Type Limits Name
    No,                       !- Interpolate to Timestep
    03:00,                    !- Time 1
    26.6666666666667,         !- Value Until Time 1
    19:00,                    !- Time 2
    23.3333333333334,         !- Value Until Time 2
    24:00,                    !- Time 3
    26.6666666666667;         !- Value Until Time 3

Schedule:Day:Interval,
    Chilled_Water_Temperature_Default,    !- Name
    Temperature,              !- Schedule Type Limits Name
    No,                       !- Interpolate to Timestep
    24:00,                    !- Time 1
    6.7;                      !- Value Until Time 1

Schedule:Day:Interval,
    Chilled_Water_Temperature_Default 1,    !- Name
    Temperature,              !- Schedule Type Limits Name
    No,                       !- Interpolate to Timestep
    24:00,                    !- Time 1
    6.7;                      !- Value Until Time 1

Schedule:Day:Interval,
    Chilled_Water_Temperature_Default 2,    !- Name
    Temperature,              !- Schedule Type Limits Name
    No,                       !- Interpolate to Timestep
    24:00,                    !- Time 1
    6.7;                      !- Value Until Time 1

Schedule:Day:Interval,
    Chilled_Water_Temperature_Default 3,    !- Name
    Temperature,              !- Schedule Type Limits Name
    No,                       !- Interpolate to Timestep
    24:00,                    !- Time 1
    6.7;                      !- Value Until Time 1

Schedule:Day:Interval,
    Chilled_Water_Temperature_Default 4,    !- Name
    Temperature,              !- Schedule Type Limits Name
    No,                       !- Interpolate to Timestep
    24:00,                    !- Time 1
    6.7;                      !- Value Until Time 1

Schedule:Day:Interval,
    Chilled_Water_Temperature_Default 5,    !- Name
    Temperature,              !- Schedule Type Limits Name
    No,                       !- Interpolate to Timestep
    24:00,                    !- Time 1
    6.7;                      !- Value Until Time 1

Schedule:Day:Interval,
    Chilled_Water_Temperature_Default 6,    !- Name
    Temperature,              !- Schedule Type Limits Name
    No,                       !- Interpolate to Timestep
    24:00,                    !- Time 1
    6.7;                      !- Value Until Time 1

Schedule:Day:Interval,
    Chilled_Water_Temperature_Summer_Design_Day,    !- Name
    Temperature,              !- Schedule Type Limits Name
    No,                       !- Interpolate to Timestep
    24:00,                    !- Time 1
    6.7;                      !- Value Until Time 1

Schedule:Day:Interval,
    Chilled_Water_Temperature_Summer_Design_Day 1,    !- Name
    Temperature,              !- Schedule Type Limits Name
    No,                       !- Interpolate to Timestep
    24:00,                    !- Time 1
    6.7;                      !- Value Until Time 1

Schedule:Day:Interval,
    Chilled_Water_Temperature_Summer_Design_Day 2,    !- Name
    Temperature,              !- Schedule Type Limits Name
    No,                       !- Interpolate to Timestep
    24:00,                    !- Time 1
    6.7;                      !- Value Until Time 1

Schedule:Day:Interval,
    Chilled_Water_Temperature_Summer_Design_Day 3,    !- Name
    Temperature,              !- Schedule Type Limits Name
    No,                       !- Interpolate to Timestep
    24:00,                    !- Time 1
    6.7;                      !- Value Until Time 1

Schedule:Day:Interval,
    Chilled_Water_Temperature_Summer_Design_Day 4,    !- Name
    Temperature,              !- Schedule Type Limits Name
    No,                       !- Interpolate to Timestep
    24:00,                    !- Time 1
    6.7;                      !- Value Until Time 1

Schedule:Day:Interval,
    Chilled_Water_Temperature_Summer_Design_Day 5,    !- Name
    Temperature,              !- Schedule Type Limits Name
    No,                       !- Interpolate to Timestep
    24:00,                    !- Time 1
    6.7;                      !- Value Until Time 1

Schedule:Day:Interval,
    Chilled_Water_Temperature_Summer_Design_Day 6,    !- Name
    Temperature,              !- Schedule Type Limits Name
    No,                       !- Interpolate to Timestep
    24:00,                    !- Time 1
    6.7;                      !- Value Until Time 1

Schedule:Day:Interval,
    Chilled_Water_Temperature_Winter_Design_Day,    !- Name
    Temperature,              !- Schedule Type Limits Name
    No,                       !- Interpolate to Timestep
    24:00,                    !- Time 1
    6.7;                      !- Value Until Time 1

Schedule:Day:Interval,
    Chilled_Water_Temperature_Winter_Design_Day 1,    !- Name
    Temperature,              !- Schedule Type Limits Name
    No,                       !- Interpolate to Timestep
    24:00,                    !- Time 1
    6.7;                      !- Value Until Time 1

Schedule:Day:Interval,
    Chilled_Water_Temperature_Winter_Design_Day 2,    !- Name
    Temperature,              !- Schedule Type Limits Name
    No,                       !- Interpolate to Timestep
    24:00,                    !- Time 1
    6.7;                      !- Value Until Time 1

Schedule:Day:Interval,
    Chilled_Water_Temperature_Winter_Design_Day 3,    !- Name
    Temperature,              !- Schedule Type Limits Name
    No,                       !- Interpolate to Timestep
    24:00,                    !- Time 1
    6.7;                      !- Value Until Time 1

Schedule:Day:Interval,
    Chilled_Water_Temperature_Winter_Design_Day 4,    !- Name
    Temperature,              !- Schedule Type Limits Name
    No,                       !- Interpolate to Timestep
    24:00,                    !- Time 1
    6.7;                      !- Value Until Time 1

Schedule:Day:Interval,
    Chilled_Water_Temperature_Winter_Design_Day 5,    !- Name
    Temperature,              !- Schedule Type Limits Name
    No,                       !- Interpolate to Timestep
    24:00,                    !- Time 1
    6.7;                      !- Value Until Time 1

Schedule:Day:Interval,
    Chilled_Water_Temperature_Winter_Design_Day 6,    !- Name
    Temperature,              !- Schedule Type Limits Name
    No,                       !- Interpolate to Timestep
    24:00,                    !- Time 1
    6.7;                      !- Value Until Time 1

Schedule:Day:Interval,
    Deck_Temperature_Default,    !- Name
    Temperature,              !- Schedule Type Limits Name
    No,                       !- Interpolate to Timestep
    24:00,                    !- Time 1
    12.8;                     !- Value Until Time 1

Schedule:Day:Interval,
    Deck_Temperature_Default 1,    !- Name
    Temperature,              !- Schedule Type Limits Name
    No,                       !- Interpolate to Timestep
    24:00,                    !- Time 1
    12.8;                     !- Value Until Time 1

Schedule:Day:Interval,
    Deck_Temperature_Default 10,    !- Name
    Temperature,              !- Schedule Type Limits Name
    No,                       !- Interpolate to Timestep
    24:00,                    !- Time 1
    12.8;                     !- Value Until Time 1

Schedule:Day:Interval,
    Deck_Temperature_Default 2,    !- Name
    Temperature,              !- Schedule Type Limits Name
    No,                       !- Interpolate to Timestep
    24:00,                    !- Time 1
    12.8;                     !- Value Until Time 1

Schedule:Day:Interval,
    Deck_Temperature_Default 3,    !- Name
    Temperature,              !- Schedule Type Limits Name
    No,                       !- Interpolate to Timestep
    24:00,                    !- Time 1
    12.8;                     !- Value Until Time 1

Schedule:Day:Interval,
    Deck_Temperature_Default 4,    !- Name
    Temperature,              !- Schedule Type Limits Name
    No,                       !- Interpolate to Timestep
    24:00,                    !- Time 1
    12.8;                     !- Value Until Time 1

Schedule:Day:Interval,
    Deck_Temperature_Default 5,    !- Name
    Temperature,              !- Schedule Type Limits Name
    No,                       !- Interpolate to Timestep
    24:00,                    !- Time 1
    12.8;                     !- Value Until Time 1

Schedule:Day:Interval,
    Deck_Temperature_Default 6,    !- Name
    Temperature,              !- Schedule Type Limits Name
    No,                       !- Interpolate to Timestep
    24:00,                    !- Time 1
    12.8;                     !- Value Until Time 1

Schedule:Day:Interval,
    Deck_Temperature_Default 7,    !- Name
    Temperature,              !- Schedule Type Limits Name
    No,                       !- Interpolate to Timestep
    24:00,                    !- Time 1
    12.8;                     !- Value Until Time 1

Schedule:Day:Interval,
    Deck_Temperature_Default 8,    !- Name
    Temperature,              !- Schedule Type Limits Name
    No,                       !- Interpolate to Timestep
    24:00,                    !- Time 1
    12.8;                     !- Value Until Time 1

Schedule:Day:Interval,
    Deck_Temperature_Default 9,    !- Name
    Temperature,              !- Schedule Type Limits Name
    No,                       !- Interpolate to Timestep
    24:00,                    !- Time 1
    12.8;                     !- Value Until Time 1

Schedule:Day:Interval,
    Deck_Temperature_Summer_Design_Day,    !- Name
    Temperature,              !- Schedule Type Limits Name
    No,                       !- Interpolate to Timestep
    24:00,                    !- Time 1
    12.8;                     !- Value Until Time 1

Schedule:Day:Interval,
    Deck_Temperature_Summer_Design_Day 1,    !- Name
    Temperature,              !- Schedule Type Limits Name
    No,                       !- Interpolate to Timestep
    24:00,                    !- Time 1
    12.8;                     !- Value Until Time 1

Schedule:Day:Interval,
    Deck_Temperature_Summer_Design_Day 10,    !- Name
    Temperature,              !- Schedule Type Limits Name
    No,                       !- Interpolate to Timestep
    24:00,                    !- Time 1
    12.8;                     !- Value Until Time 1

Schedule:Day:Interval,
    Deck_Temperature_Summer_Design_Day 2,    !- Name
    Temperature,              !- Schedule Type Limits Name
    No,                       !- Interpolate to Timestep
    24:00,                    !- Time 1
    12.8;                     !- Value Until Time 1

Schedule:Day:Interval,
    Deck_Temperature_Summer_Design_Day 3,    !- Name
    Temperature,              !- Schedule Type Limits Name
    No,                       !- Interpolate to Timestep
    24:00,                    !- Time 1
    12.8;                     !- Value Until Time 1

Schedule:Day:Interval,
    Deck_Temperature_Summer_Design_Day 4,    !- Name
    Temperature,              !- Schedule Type Limits Name
    No,                       !- Interpolate to Timestep
    24:00,                    !- Time 1
    12.8;                     !- Value Until Time 1

Schedule:Day:Interval,
    Deck_Temperature_Summer_Design_Day 5,    !- Name
    Temperature,              !- Schedule Type Limits Name
    No,                       !- Interpolate to Timestep
    24:00,                    !- Time 1
    12.8;                     !- Value Until Time 1

Schedule:Day:Interval,
    Deck_Temperature_Summer_Design_Day 6,    !- Name
    Temperature,              !- Schedule Type Limits Name
    No,                       !- Interpolate to Timestep
    24:00,                    !- Time 1
    12.8;                     !- Value Until Time 1

Schedule:Day:Interval,
    Deck_Temperature_Summer_Design_Day 7,    !- Name
    Temperature,              !- Schedule Type Limits Name
    No,                       !- Interpolate to Timestep
    24:00,                    !- Time 1
    12.8;                     !- Value Until Time 1

Schedule:Day:Interval,
    Deck_Temperature_Summer_Design_Day 8,    !- Name
    Temperature,              !- Schedule Type Limits Name
    No,                       !- Interpolate to Timestep
    24:00,                    !- Time 1
    12.8;                     !- Value Until Time 1

Schedule:Day:Interval,
    Deck_Temperature_Summer_Design_Day 9,    !- Name
    Temperature,              !- Schedule Type Limits Name
    No,                       !- Interpolate to Timestep
    24:00,                    !- Time 1
    12.8;                     !- Value Until Time 1

Schedule:Day:Interval,
    Deck_Temperature_Winter_Design_Day,    !- Name
    Temperature,              !- Schedule Type Limits Name
    No,                       !- Interpolate to Timestep
    24:00,                    !- Time 1
    12.8;                     !- Value Until Time 1

Schedule:Day:Interval,
    Deck_Temperature_Winter_Design_Day 1,    !- Name
    Temperature,              !- Schedule Type Limits Name
    No,                       !- Interpolate to Timestep
    24:00,                    !- Time 1
    12.8;                     !- Value Until Time 1

Schedule:Day:Interval,
    Deck_Temperature_Winter_Design_Day 10,    !- Name
    Temperature,              !- Schedule Type Limits Name
    No,                       !- Interpolate to Timestep
    24:00,                    !- Time 1
    12.8;                     !- Value Until Time 1

Schedule:Day:Interval,
    Deck_Temperature_Winter_Design_Day 2,    !- Name
    Temperature,              !- Schedule Type Limits Name
    No,                       !- Interpolate to Timestep
    24:00,                    !- Time 1
    12.8;                     !- Value Until Time 1

Schedule:Day:Interval,
    Deck_Temperature_Winter_Design_Day 3,    !- Name
    Temperature,              !- Schedule Type Limits Name
    No,                       !- Interpolate to Timestep
    24:00,                    !- Time 1
    12.8;                     !- Value Until Time 1

Schedule:Day:Interval,
    Deck_Temperature_Winter_Design_Day 4,    !- Name
    Temperature,              !- Schedule Type Limits Name
    No,                       !- Interpolate to Timestep
    24:00,                    !- Time 1
    12.8;                     !- Value Until Time 1

Schedule:Day:Interval,
    Deck_Temperature_Winter_Design_Day 5,    !- Name
    Temperature,              !- Schedule Type Limits Name
    No,                       !- Interpolate to Timestep
    24:00,                    !- Time 1
    12.8;                     !- Value Until Time 1

Schedule:Day:Interval,
    Deck_Temperature_Winter_Design_Day 6,    !- Name
    Temperature,              !- Schedule Type Limits Name
    No,                       !- Interpolate to Timestep
    24:00,                    !- Time 1
    12.8;                     !- Value Until Time 1

Schedule:Day:Interval,
    Deck_Temperature_Winter_Design_Day 7,    !- Name
    Temperature,              !- Schedule Type Limits Name
    No,                       !- Interpolate to Timestep
    24:00,                    !- Time 1
    12.8;                     !- Value Until Time 1

Schedule:Day:Interval,
    Deck_Temperature_Winter_Design_Day 8,    !- Name
    Temperature,              !- Schedule Type Limits Name
    No,                       !- Interpolate to Timestep
    24:00,                    !- Time 1
    12.8;                     !- Value Until Time 1

Schedule:Day:Interval,
    Deck_Temperature_Winter_Design_Day 9,    !- Name
    Temperature,              !- Schedule Type Limits Name
    No,                       !- Interpolate to Timestep
    24:00,                    !- Time 1
    12.8;                     !- Value Until Time 1

Schedule:Day:Interval,
    Hot_Water_Temperature_Default,    !- Name
    Temperature,              !- Schedule Type Limits Name
    No,                       !- Interpolate to Timestep
    24:00,                    !- Time 1
    67;                       !- Value Until Time 1

Schedule:Day:Interval,
    Hot_Water_Temperature_Default 1,    !- Name
    Temperature,              !- Schedule Type Limits Name
    No,                       !- Interpolate to Timestep
    24:00,                    !- Time 1
    67;                       !- Value Until Time 1

Schedule:Day:Interval,
    Hot_Water_Temperature_Default 2,    !- Name
    Temperature,              !- Schedule Type Limits Name
    No,                       !- Interpolate to Timestep
    24:00,                    !- Time 1
    67;                       !- Value Until Time 1

Schedule:Day:Interval,
    Hot_Water_Temperature_Summer_Design_Day,    !- Name
    Temperature,              !- Schedule Type Limits Name
    No,                       !- Interpolate to Timestep
    24:00,                    !- Time 1
    67;                       !- Value Until Time 1

Schedule:Day:Interval,
    Hot_Water_Temperature_Summer_Design_Day 1,    !- Name
    Temperature,              !- Schedule Type Limits Name
    No,                       !- Interpolate to Timestep
    24:00,                    !- Time 1
    67;                       !- Value Until Time 1

Schedule:Day:Interval,